/*--------------------------------*- C++ -*----------------------------------*\
| =========                 |                                                 |
| \\      /  F ield         | OpenFOAM: The Open Source CFD Toolbox           |
|  \\    /   O peration     | Version:  2.3.x                                 |
|   \\  /    A nd           | Web:      www.OpenFOAM.org                      |
|    \\/     M anipulation  |                                                 |
\*---------------------------------------------------------------------------*/
FoamFile
{
    version     2.0;
    format      ascii;
    class       dictionary;
    object      fvSolution;
}
// * * * * * * * * * * * * * * * * * * * * * * * * * * * * * * * * * * * * * //

solvers
{
    pcorr
    {
        solver           	GAMG;
        tolerance        	0.01; 
        relTol           	0; 
        smoother         	GaussSeidel;
        nPreSweeps       	0; 
        nPostSweeps      	2;
        cacheAgglomeration 	true; 
        agglomerator     	faceAreaPair;
        nCellsInCoarsestLevel 	50;
        mergeLevels      	1;
	    maxIterations		100;
    }

    p
    {
        $pcorr;
        tolerance       1e-4; 
        relTol          0.01; 
    }

    pFinal
    {
        $p;
        tolerance       1e-5; // 1e-6
        relTol          0; 
    }

    "(U|k|omega)"
    {
        solver          smoothSolver;
        smoother        symGaussSeidel;
        tolerance       1e-4;
        relTol          0.1;
    }

    "(U|k|omega)Final"
    {
        solver          smoothSolver;
        smoother        symGaussSeidel;
        tolerance       1e-5;
        relTol          0;
    }

}

PIMPLE
{
    correctPhi          no;
    nOuterCorrectors    30; 
    nCorrectors         2; 
    nNonOrthogonalCorrectors 1; 
    pRefCell            0;
    pRefValue           0;

    residualControl
    {
        U
        {
            tolerance 1e-3;
            relTol 0;
        }

        p
        {
            tolerance 1e-3;
            relTol 0;
        }
    }

}

relaxationFactors
{
    fields
    {
        p                   0.7;
    }
    equations
    {
        "(U|k|omega)"       0.8;
        "(U|k|omega)Final"  1;
    }
}

cache
{
    grad(U);
}

// ************************************************************************* //
