/*--------------------------------*- C++ -*----------------------------------*\
| =========                 |                                                 |
| \\      /  F ield         | OpenFOAM: The Open Source CFD Toolbox           |
|  \\    /   O peration     | Version:  4.1                                   |
|   \\  /    A nd           | Web:      www.OpenFOAM.org                      |
|    \\/     M anipulation  |                                                 |
\*---------------------------------------------------------------------------*/
FoamFile
{
    version     2.0;
    format      ascii;
    class       volScalarField;
    location    "0";
    object      p;
}
// * * * * * * * * * * * * * * * * * * * * * * * * * * * * * * * * * * * * * //

dimensions      [0 2 -2 0 0 0 0];

internalField   uniform 0;

boundaryField
{
    blade1
    {
        type            zeroGradient;
    }
    blade2
    {
        type            zeroGradient;
    }
    blade3
    {
        type            zeroGradient;
    }
    blade4
    {
        type            zeroGradient;
    }
    blade5
    {
        type            zeroGradient;
    }
    blade6
    {
        type            zeroGradient;
    }
    wall
    {
        type            zeroGradient;
    }
    iIR
    {
        type            cyclicAMI;
    }
    iOR
    {
        type            cyclicAMI;
    }
    iIL
    {
        type            cyclicAMI;
    }
    iOL
    {
        type            cyclicAMI;
    }
    inlet
    {
        type            freestreamPressure;
    }
    outlet
    {
        type            fixedValue;
	  value		  uniform 0;
    }
    frontAndBack
    {
        type            empty;
    }

}


// ************************************************************************* //
