/*--------------------------------*- C++ -*----------------------------------*\
| =========                 |                                                 |
| \\      /  F ield         | OpenFOAM: The Open Source CFD Toolbox           |
|  \\    /   O peration     | Version:  4.1                                   |
|   \\  /    A nd           | Web:      www.OpenFOAM.org                      |
|    \\/     M anipulation  |                                                 |
\*---------------------------------------------------------------------------*/
FoamFile
{
    version     2.0;
    format      ascii;
    class       volVectorField;
    location    "0";
    object      U;
}
// * * * * * * * * * * * * * * * * * * * * * * * * * * * * * * * * * * * * * //

dimensions      [0 1 -1 0 0 0 0];

internalField   uniform (0.3 0 0);

boundaryField
{
    blade1
    {
        type            movingWallVelocity;
        value           uniform (0 0 0);
    }
    blade2
    {
        type            movingWallVelocity;
        value           uniform (0 0 0);
    }
    blade3
    {
        type            movingWallVelocity;
        value           uniform (0 0 0);
    }
    blade4
    {
        type            movingWallVelocity;
        value           uniform (0 0 0);
    }
    blade5
    {
        type            movingWallVelocity;
        value           uniform (0 0 0);
    }
    blade6
    {
        type            movingWallVelocity;
        value           uniform (0 0 0);
    }
    wall
    {
        type            fixedValue;
        value           uniform (0 0 0);
    }
    inlet
    {
        type            freestream;
        freestreamValue uniform (0.3 0 0);
        value           uniform (0.3 0 0);
    }
    iIR
    {
        type            cyclicAMI;
    }
    iOR
    {
        type            cyclicAMI;
    }
    iIL
    {
        type            cyclicAMI;
    }
    iOL
    {
        type            cyclicAMI;
    }
    frontAndBack
    {
        type            empty;
    }
    outlet
    {
        type            zeroGradient;
    }
}


// ************************************************************************* //
