/*--------------------------------*- C++ -*----------------------------------*\
| =========                 |                                                 |
| \\      /  F ield         | OpenFOAM: The Open Source CFD Toolbox           |
|  \\    /   O peration     | Version:  2.2.0                                 |
|   \\  /    A nd           | Web:      www.OpenFOAM.org                      |
|    \\/     M anipulation  |                                                 |
\*---------------------------------------------------------------------------*/
FoamFile
{
    version     2.0;
    format      ascii;
    class       dictionary;
    object      createPatchDict;
}
// * * * * * * * * * * * * * * * * * * * * * * * * * * * * * * * * * * * * * //
pointSync false;
patches
(
	{
	        name                blade1;
        patchInfo
        {
            type            wall;
        }
        constructFrom patches;
        patches (b1);
    }
		{
	        name                blade2;
        patchInfo
        {
            type            wall;
        }
        constructFrom patches;
        patches (b2);
    }
		{
	        name                blade3;
        patchInfo
        {
            type            wall;
        }
        constructFrom patches;
        patches (b3);
    }
		{
	        name                blade4;
        patchInfo
        {
            type            wall;
        }
        constructFrom patches;
        patches (b4);
    }
		{
	        name                blade5;
        patchInfo
        {
            type            wall;
        }
        constructFrom patches;
        patches (b5);
    }
		{
	        name                blade6;
        patchInfo
        {
            type            wall;
        }
        constructFrom patches;
        patches (b6);
    }
	{
	        name                wall;
        patchInfo
        {
            type            wall;
        }
        constructFrom patches;
        patches (w);
    }


    
);

// ************************************************************************* //
