/*--------------------------------*- C++ -*----------------------------------*\
| =========                 |                                                 |
| \\      /  F ield         | OpenFOAM: The Open Source CFD Toolbox           |
|  \\    /   O peration     | Version:  4.1                                   |
|   \\  /    A nd           | Web:      www.OpenFOAM.org                      |
|    \\/     M anipulation  |                                                 |
\*---------------------------------------------------------------------------*/
FoamFile
{
    version     2.0;
    format      ascii;
    class       volScalarField;
    location    "0";
    object      k;
}
// * * * * * * * * * * * * * * * * * * * * * * * * * * * * * * * * * * * * * //


dimensions      [0 2 -2 0 0 0 0];

internalField   uniform 3e-3;

// k at the inlet is calculated as k = 3/2 (u*I)^2; where I(ntensity) = 0.3

boundaryField
{
    blade1
    {

	type		fixedValue;
	value		uniform 1e-12;
    }
    blade2
    {

	type		fixedValue;
	value		uniform 1e-12;
    }
    blade3
    {

	type		fixedValue;
	value		uniform 1e-12;
    }
    blade4
    {

	type		fixedValue;
	value		uniform 1e-12;
    }
    blade5
    {

	type		fixedValue;
	value		uniform 1e-12;
    }
    blade6
    {
		type		fixedValue;
		value		uniform 1e-12;
    }
    wall
    {
    	type            kqRWallFunction;
    	value           uniform 0.1;
    }
    inlet
    {
        type            fixedValue;
		value		$internalField;
    }
    iIR
    {
        type            cyclicAMI;
    }
    iOR
    {
        type            cyclicAMI;
    }
    iIL
    {
        type            cyclicAMI;
    }
    iOL
    {
        type            cyclicAMI;
    }
    frontAndBack
    {
        type            empty;
    }
    outlet
    {
        type            zeroGradient;
    }
}


// ************************************************************************* //
